[General]
ned-path=.:/home/wilhelm/Documents/omnetpp-5.5.1/samples/inet/src
network = dcs.DCS
sim-time-limit = 1000s
**.**.nbNodes =1000
**.**.clockLength = 50
**.**.delaySend=25000.0
**.**.PEAKSPERDELAY=1000.0
**.vector-recording = false
**.scalar-recording = false
**.statistic-recording = false
